# Packages
 &PACKAGES
 usePTRACERS=.TRUE.
 useGCHEM=.TRUE.,
# useDiagnostics=.TRUE.,
 useKPP=.TRUE.,
 useMNC=.TRUE.,
 /
