# *********************
# External Forcing Data
# *********************
#
 &EXF_NML_01
 exf_albedo        = 0.15,
 exf_iprec         = 32,
 exf_yftype        = 'RL',
 useExfYearlyFields= .TRUE.,
 twoDigitYear      = .TRUE.,
 useExfCheckRange  = .FALSE.,
 &
#
 &EXF_NML_02
 atempfile         = 'RG_tmp2m',
 aqhfile           = 'RG_spfh2m',
 precipfile        = 'RG_rain',
 runofffile        = 'runoff-360x180x12.bin',
 uwindfile         = 'RG_u10m',
 vwindfile         = 'RG_v10m',
 swdownfile        = 'RG_dsw',
 lwdownfile        = 'RG_dlw',
 climsssfile       = 'LEV01_SSS_360x180x12.bin',
#
 atempstartdate1   = 19990301,
 atempstartdate2   = 120000,
 atempperiod       = 21600.0,
#
 aqhstartdate1     = 19990301,
 aqhstartdate2     = 120000,
 aqhperiod         = 21600.0,
#
 precipstartdate1  = 19990301,
 precipstartdate2  = 120000,
 precipperiod      = 21600.0,
#
 runoffperiod      = -12.,
#
 uwindstartdate1   = 19990301,
 uwindstartdate2   = 120000,
 uwindperiod       = 21600.0,
#
 vwindstartdate1   = 19990301,
 vwindstartdate2   = 120000,
 vwindperiod       = 21600.0,
#
 swdownstartdate1  = 19990301,
 swdownstartdate2  = 090000,
 swdownperiod      = 21600.0,
#
 lwdownstartdate1  = 19990301,
 lwdownstartdate2  = 090000,
 lwdownperiod      = 21600.0,
#
 climsssperiod     = -12.,
 climsssTauRelax   = 8722203.,
 &
#
 &EXF_NML_03
 exf_offset_atemp  = 273.3971,
 exf_inscal_runoff = 3.1710e-08,
 &
#
 &EXF_NML_04
 atemp_lon0        = 0.00D0,
 atemp_lon_inc     = 1.875D0,
 atemp_lat0        = -88.5420D0,
 atemp_lat_inc     = 1.8888, 1.9000, 1.9024, 1.9034, 1.9039, 1.9042,
     1.9042, 1.9044, 1.9045, 1.9045, 1.9046, 1.9046, 1.9046, 1.9046,
     1.9047, 1.9046, 1.9047, 1.9047, 1.9047, 1.9047, 1.9047, 1.9047,
     1.9047, 1.9047, 1.9047, 1.9047, 1.9048, 1.9047, 1.9047, 1.9047,
     1.9047, 1.9048, 1.9047, 1.9047, 1.9048, 1.9047, 1.9047, 1.9048,
     1.9047, 1.9047, 1.9048, 1.9047, 1.9047, 1.9048, 1.9047, 1.9047,
     1.9048, 1.9047, 1.9047, 1.9048, 1.9047, 1.9047, 1.9048, 1.9047,
     1.9047, 1.9048, 1.9047, 1.9047, 1.9048, 1.9047, 1.9047, 1.9048,
     1.9047, 1.9047, 1.9047, 1.9047, 1.9048, 1.9047, 1.9047, 1.9047,
     1.9047, 1.9047, 1.9047, 1.9047, 1.9047, 1.9047, 1.9047, 1.9046,
     1.9047, 1.9046, 1.9046, 1.9046, 1.9046, 1.9045, 1.9045, 1.9044,
     1.9042, 1.9042, 1.9039, 1.9034, 1.9024, 1.9000, 1.8888, 1.8888,
 atemp_nlon        = 192,
 atemp_nlat        = 94,
#
 aqh_lon0          = 0.00D0,
 aqh_lon_inc       = 1.875D0,
 aqh_lat0          = -88.5420D0,
 aqh_lat_inc       = 1.8888, 1.9000, 1.9024, 1.9034, 1.9039, 1.9042,
     1.9042, 1.9044, 1.9045, 1.9045, 1.9046, 1.9046, 1.9046, 1.9046,
     1.9047, 1.9046, 1.9047, 1.9047, 1.9047, 1.9047, 1.9047, 1.9047,
     1.9047, 1.9047, 1.9047, 1.9047, 1.9048, 1.9047, 1.9047, 1.9047,
     1.9047, 1.9048, 1.9047, 1.9047, 1.9048, 1.9047, 1.9047, 1.9048,
     1.9047, 1.9047, 1.9048, 1.9047, 1.9047, 1.9048, 1.9047, 1.9047,
     1.9048, 1.9047, 1.9047, 1.9048, 1.9047, 1.9047, 1.9048, 1.9047,
     1.9047, 1.9048, 1.9047, 1.9047, 1.9048, 1.9047, 1.9047, 1.9048,
     1.9047, 1.9047, 1.9047, 1.9047, 1.9048, 1.9047, 1.9047, 1.9047,
     1.9047, 1.9047, 1.9047, 1.9047, 1.9047, 1.9047, 1.9047, 1.9046,
     1.9047, 1.9046, 1.9046, 1.9046, 1.9046, 1.9045, 1.9045, 1.9044,
     1.9042, 1.9042, 1.9039, 1.9034, 1.9024, 1.9000, 1.8888, 1.8888,
 aqh_nlon          = 192,
 aqh_nlat          = 94,
#
 precip_lon0       = 0.00D0,
 precip_lon_inc    = 1.875D0,
 precip_lat0       = -88.5420D0,
 precip_lat_inc    = 1.8888, 1.9000, 1.9024, 1.9034, 1.9039, 1.9042,
     1.9042, 1.9044, 1.9045, 1.9045, 1.9046, 1.9046, 1.9046, 1.9046,
     1.9047, 1.9046, 1.9047, 1.9047, 1.9047, 1.9047, 1.9047, 1.9047,
     1.9047, 1.9047, 1.9047, 1.9047, 1.9048, 1.9047, 1.9047, 1.9047,
     1.9047, 1.9048, 1.9047, 1.9047, 1.9048, 1.9047, 1.9047, 1.9048,
     1.9047, 1.9047, 1.9048, 1.9047, 1.9047, 1.9048, 1.9047, 1.9047,
     1.9048, 1.9047, 1.9047, 1.9048, 1.9047, 1.9047, 1.9048, 1.9047,
     1.9047, 1.9048, 1.9047, 1.9047, 1.9048, 1.9047, 1.9047, 1.9048,
     1.9047, 1.9047, 1.9047, 1.9047, 1.9048, 1.9047, 1.9047, 1.9047,
     1.9047, 1.9047, 1.9047, 1.9047, 1.9047, 1.9047, 1.9047, 1.9046,
     1.9047, 1.9046, 1.9046, 1.9046, 1.9046, 1.9045, 1.9045, 1.9044,
     1.9042, 1.9042, 1.9039, 1.9034, 1.9024, 1.9000, 1.8888, 1.8888,
 precip_nlon       = 192,
 precip_nlat       = 94,
#
 runoff_lon0       = 0.50D0,
 runoff_lon_inc    = 1.0D0,
 runoff_lat0       = -89.5D0,
 runoff_lat_inc    = 179*1.,
 runoff_nlon       = 360,
 runoff_nlat       = 180,
#
 uwind_lon0        = 0.00D0,
 uwind_lon_inc     = 1.875D0,
 uwind_lat0        = -88.5420D0,
 uwind_lat_inc     = 1.8888, 1.9000, 1.9024, 1.9034, 1.9039, 1.9042,
     1.9042, 1.9044, 1.9045, 1.9045, 1.9046, 1.9046, 1.9046, 1.9046,
     1.9047, 1.9046, 1.9047, 1.9047, 1.9047, 1.9047, 1.9047, 1.9047,
     1.9047, 1.9047, 1.9047, 1.9047, 1.9048, 1.9047, 1.9047, 1.9047,
     1.9047, 1.9048, 1.9047, 1.9047, 1.9048, 1.9047, 1.9047, 1.9048,
     1.9047, 1.9047, 1.9048, 1.9047, 1.9047, 1.9048, 1.9047, 1.9047,
     1.9048, 1.9047, 1.9047, 1.9048, 1.9047, 1.9047, 1.9048, 1.9047,
     1.9047, 1.9048, 1.9047, 1.9047, 1.9048, 1.9047, 1.9047, 1.9048,
     1.9047, 1.9047, 1.9047, 1.9047, 1.9048, 1.9047, 1.9047, 1.9047,
     1.9047, 1.9047, 1.9047, 1.9047, 1.9047, 1.9047, 1.9047, 1.9046,
     1.9047, 1.9046, 1.9046, 1.9046, 1.9046, 1.9045, 1.9045, 1.9044,
     1.9042, 1.9042, 1.9039, 1.9034, 1.9024, 1.9000, 1.8888, 1.8888,
 uwind_nlon        = 192,
 uwind_nlat        = 94,
#
 vwind_lon0        = 0.00D0,
 vwind_lon_inc     = 1.875D0,
 vwind_lat0        = -88.5420D0,
 vwind_lat_inc     = 1.8888, 1.9000, 1.9024, 1.9034, 1.9039, 1.9042,
     1.9042, 1.9044, 1.9045, 1.9045, 1.9046, 1.9046, 1.9046, 1.9046,
     1.9047, 1.9046, 1.9047, 1.9047, 1.9047, 1.9047, 1.9047, 1.9047,
     1.9047, 1.9047, 1.9047, 1.9047, 1.9048, 1.9047, 1.9047, 1.9047,
     1.9047, 1.9048, 1.9047, 1.9047, 1.9048, 1.9047, 1.9047, 1.9048,
     1.9047, 1.9047, 1.9048, 1.9047, 1.9047, 1.9048, 1.9047, 1.9047,
     1.9048, 1.9047, 1.9047, 1.9048, 1.9047, 1.9047, 1.9048, 1.9047,
     1.9047, 1.9048, 1.9047, 1.9047, 1.9048, 1.9047, 1.9047, 1.9048,
     1.9047, 1.9047, 1.9047, 1.9047, 1.9048, 1.9047, 1.9047, 1.9047,
     1.9047, 1.9047, 1.9047, 1.9047, 1.9047, 1.9047, 1.9047, 1.9046,
     1.9047, 1.9046, 1.9046, 1.9046, 1.9046, 1.9045, 1.9045, 1.9044,
     1.9042, 1.9042, 1.9039, 1.9034, 1.9024, 1.9000, 1.8888, 1.8888,
 vwind_nlon        = 192,
 vwind_nlat        = 94,
#
 swdown_lon0       = 0.00D0,
 swdown_lon_inc    = 1.875D0,
 swdown_lat0       = -88.5420D0,
 swdown_lat_inc    = 1.8888, 1.9000, 1.9024, 1.9034, 1.9039, 1.9042,
     1.9042, 1.9044, 1.9045, 1.9045, 1.9046, 1.9046, 1.9046, 1.9046,
     1.9047, 1.9046, 1.9047, 1.9047, 1.9047, 1.9047, 1.9047, 1.9047,
     1.9047, 1.9047, 1.9047, 1.9047, 1.9048, 1.9047, 1.9047, 1.9047,
     1.9047, 1.9048, 1.9047, 1.9047, 1.9048, 1.9047, 1.9047, 1.9048,
     1.9047, 1.9047, 1.9048, 1.9047, 1.9047, 1.9048, 1.9047, 1.9047,
     1.9048, 1.9047, 1.9047, 1.9048, 1.9047, 1.9047, 1.9048, 1.9047,
     1.9047, 1.9048, 1.9047, 1.9047, 1.9048, 1.9047, 1.9047, 1.9048,
     1.9047, 1.9047, 1.9047, 1.9047, 1.9048, 1.9047, 1.9047, 1.9047,
     1.9047, 1.9047, 1.9047, 1.9047, 1.9047, 1.9047, 1.9047, 1.9046,
     1.9047, 1.9046, 1.9046, 1.9046, 1.9046, 1.9045, 1.9045, 1.9044,
     1.9042, 1.9042, 1.9039, 1.9034, 1.9024, 1.9000, 1.8888, 1.8888,
 swdown_nlon       = 192,
 swdown_nlat       = 94,
#
 lwdown_lon0       = 0.00D0,
 lwdown_lon_inc    = 1.875D0,
 lwdown_lat0       = -88.5420D0,
 lwdown_lat_inc    = 1.8888, 1.9000, 1.9024, 1.9034, 1.9039, 1.9042,
     1.9042, 1.9044, 1.9045, 1.9045, 1.9046, 1.9046, 1.9046, 1.9046,
     1.9047, 1.9046, 1.9047, 1.9047, 1.9047, 1.9047, 1.9047, 1.9047,
     1.9047, 1.9047, 1.9047, 1.9047, 1.9048, 1.9047, 1.9047, 1.9047,
     1.9047, 1.9048, 1.9047, 1.9047, 1.9048, 1.9047, 1.9047, 1.9048,
     1.9047, 1.9047, 1.9048, 1.9047, 1.9047, 1.9048, 1.9047, 1.9047,
     1.9048, 1.9047, 1.9047, 1.9048, 1.9047, 1.9047, 1.9048, 1.9047,
     1.9047, 1.9048, 1.9047, 1.9047, 1.9048, 1.9047, 1.9047, 1.9048,
     1.9047, 1.9047, 1.9047, 1.9047, 1.9048, 1.9047, 1.9047, 1.9047,
     1.9047, 1.9047, 1.9047, 1.9047, 1.9047, 1.9047, 1.9047, 1.9046,
     1.9047, 1.9046, 1.9046, 1.9046, 1.9046, 1.9045, 1.9045, 1.9044,
     1.9042, 1.9042, 1.9039, 1.9034, 1.9024, 1.9000, 1.8888, 1.8888,
 lwdown_nlon       = 192,
 lwdown_nlat       = 94,
#
 climsss_lon0      = 0.5,
 climsss_lon_inc   = 1.,
 climsss_lat0      = -89.5,
 climsss_lat_inc   = 179*1.,
 climsss_nlon      = 360,
 climsss_nlat      = 180,
 &
#
 &EXF_NML_OBCS
 obcsNstartdate1   = 19990219,
 obcsNstartdate2   = 060000,
 obcsNperiod       = 2635200.0,
#
 obcsEstartdate1   = 19990219,
 obcsEstartdate2   = 060000,
 obcsEperiod       = 2635200.0,
#
 obcsWstartdate1   = 19990219,
 obcsWstartdate2   = 060000,
 obcsWperiod       = 2635200.0,
 &
