# Packages
 &PACKAGES
 useEXF         = .TRUE.,
 useSEAICE      = .TRUE.,
 useKPP         = .TRUE.,
 useDiagnostics = .TRUE.,
 useOBCS        = .TRUE.,
 usePTRACERS    = .TRUE.,
 useGCHEM       = .TRUE.,
 useMNC         = .FALSE.,
 &
